<?xml version="1.0" encoding="UTF-8"?>

<net version="1.16" junctionCornerDetail="5" limitTurnSpeed="5.50" xmlns:xsi="http://www.w3.org/2001/XMLSchema-instance" xsi:noNamespaceSchemaLocation="http://sumo.dlr.de/xsd/net_file.xsd">

    <location netOffset="0.00,0.00" convBoundary="-1020.00,-600.00,1000.00,0.00" origBoundary="-10000000000.00,-10000000000.00,10000000000.00,10000000000.00" projParameter="!"/>

    <edge id=":J0_0" function="internal">
        <lane id=":J0_0_0" index="0" speed="33.33" length="8.40" shape="196.00,-4.80 198.46,-4.30 200.00,-3.20 201.54,-2.10 204.00,-1.60"/>
        <lane id=":J0_0_1" index="1" speed="33.33" length="8.40" shape="196.00,-1.60 204.00,-1.60"/>
    </edge>
    <edge id=":node_0_1_0" function="internal">
        <lane id=":node_0_1_0_0" index="0" speed="33.33" length="3.98" shape="-5.36,-6.02 -4.41,-5.34 -3.67,-4.98 -2.87,-4.83 -1.70,-4.80"/>
    </edge>
    <edge id=":node_0_1_1" function="internal">
        <lane id=":node_0_1_1_0" index="0" speed="33.33" length="4.07" shape="-5.77,-1.60 -1.70,-1.60"/>
    </edge>

    <edge id="E0" from="node_0_0" to="node_0_1" priority="-1">
        <lane id="E0_0" index="0" speed="33.33" length="1014.23" shape="-1020.00,-1.60 -5.77,-1.60"/>
    </edge>
    <edge id="E1" from="node_0_4" to="node_0_1" priority="70">
        <lane id="E1_0" index="0" speed="33.33" length="992.10" shape="-799.04,-601.28 -5.36,-6.02"/>
    </edge>
    <edge id="E2" from="node_0_1" to="J0" priority="7">
        <lane id="E2_0" index="0" speed="33.33" length="197.70" acceleration="1" shape="-1.70,-4.80 196.00,-4.80"/>
        <lane id="E2_1" index="1" speed="33.33" length="197.70" shape="-1.70,-1.60 196.00,-1.60"/>
    </edge>
    <edge id="E3" from="J0" to="node_0_2" priority="7">
        <lane id="E3_0" index="0" speed="33.33" length="796.00" shape="204.00,-1.60 1000.00,-1.60"/>
    </edge>

    <junction id="J0" type="priority" x="200.00" y="0.00" incLanes="E2_0 E2_1" intLanes=":J0_0_0 :J0_0_1" shape="204.00,0.00 204.00,-3.20 200.97,-4.03 199.03,-5.57 197.79,-6.16 196.00,-6.40 196.00,0.00">
        <request index="0" response="10" foes="10" cont="0"/>
        <request index="1" response="00" foes="01" cont="0"/>
    </junction>
    <junction id="node_0_0" type="dead_end" x="-1020.00" y="0.00" incLanes="" intLanes="" shape="-1000.00,0.00 -1000.00,6.40" customShape="1"/>
    <junction id="node_0_1" type="priority" x="0.00" y="0.00" incLanes="E1_0 E0_0" intLanes=":node_0_1_0_0 :node_0_1_1_0" shape="-1.70,0.00 -1.70,-6.40 -2.78,-6.44 -3.16,-6.53 -3.51,-6.69 -3.90,-6.94 -4.40,-7.30 -6.32,-4.74 -5.35,-3.88 -5.16,-3.59 -5.16,-3.37 -5.37,-3.24 -5.77,-3.20 -5.77,0.00">
        <request index="0" response="00" foes="00" cont="0"/>
        <request index="1" response="00" foes="00" cont="0"/>
    </junction>
    <junction id="node_0_2" type="dead_end" x="1000.00" y="0.00" incLanes="E3_0" intLanes="" shape="1000.00,-3.20 1000.00,0.00"/>
    <junction id="node_0_4" type="dead_end" x="-800.00" y="-600.00" incLanes="" intLanes="" shape="-800.00,-600.00 -798.08,-602.56"/>

    <connection from="E0" to="E2" fromLane="0" toLane="1" via=":node_0_1_1_0" dir="s" state="M"/>
    <connection from="E1" to="E2" fromLane="0" toLane="0" via=":node_0_1_0_0" dir="s" state="M"/>
    <connection from="E2" to="E3" fromLane="0" toLane="0" via=":J0_0_0" dir="s" state="m"/>
    <connection from="E2" to="E3" fromLane="1" toLane="0" keepClear="0" via=":J0_0_1" dir="s" state="M"/>

    <connection from=":J0_0" to="E3" fromLane="0" toLane="0" dir="s" state="M"/>
    <connection from=":J0_0" to="E3" fromLane="1" toLane="0" dir="s" state="M"/>
    <connection from=":node_0_1_0" to="E2" fromLane="0" toLane="0" dir="s" state="M"/>
    <connection from=":node_0_1_1" to="E2" fromLane="0" toLane="1" dir="s" state="M"/>

</net>
